2B D6 45 9F
 82 C5 B3 00
 95 2C 49 10
 48 81 FF 48

EA 02 47 14
 AD 5C 4D 84
 DF 1F 9B 25
 1C 0B F4 5F

8C E3 3E 2C
 C3 C0 B5 FC
 1F 3D E8 A6
 DC 66 B1 F3

D3 C5 D5 92
 32 7F B1 1C
 DE 55 19 88
 CE B2 F9 B7

40 35 C6 68
 0A F8 C6 D1
 A8 FF 86 67
 B1 71 40 13

62 A5 40 98
 1B A6 F9 B7
 45 92 B0 E7
 86 90 F7 1B

